!*  
ET,1,BEAM188
!*  
ET,2,SHELL181     
!*  
MPDATA,EX,1,,2.1e11 
MPDATA,PRXY,1,,0.3   
MPDATA,DENS,1,,7850 
MPDATA,EX,2,,3.5e10 
MPDATA,PRXY,2,,0.1667   
MPDATA,DENS,2,,2500 
SECTYPE,   1, BEAM, I, , 0  
SECDATA,0.4,0.4,0.4,0.016,0.016,0.016
SECTYPE,   2, BEAM, I, , 0  
SECDATA,0.4,0.4,0.4,0.012,0.012,0.012  
SECTYPE,   3, BEAM, I, , 0  
SECDATA,0.3,0.3,0.3,0.012,0.012,0.012
sect,4,shell  
secdata, 0.3,2,0.0,1
